
paratest    0x098 152  0XfD660878 4251322488
P 0x1 1
GRST

GW 0 0 
CW 0 0x0 64  0x40
TPEnG 0 0X0 0x1  1
TP 0 0 0 0 1  0X1
SRst 0
DRst 0
DSTART 0x1 0x1
Q
DFf 989 6 0x6 0x7   7
